Mass spectrum: Daldinin C; ESI-Q-TOF; MS2; CE:40.656; [M+H]+
Name: Daldinin C
Formula: Unknown
Exact mass: Unknown
Instrument: ESI-Q-TOF
Instrument type: ESI-Q-TOF
Ms type: MS2
Ion mode: POSITIVE
Collision energy: 40.656
Precursor m/z: 435.16495886660994
m/z	relative intensity
55.05429	434
56.05867	43
83.04684	809
84.05534	44
85.06482	34
97.06419	30
121.02780	30
125.02259	85
125.05963	72
131.08487	54
135.04281	37
137.05847	33
145.10307	32
147.04581	35
151.03943	36
153.02158	162
159.08061	89
161.05834	32
163.03880	164
163.06830	44
165.05539	57
169.06579	30
173.09576	78
175.03938	140
177.01688	47
177.05342	36
177.09034	68
179.04011	48
183.08016	34
187.08087	245
188.07882	39
189.05441	186
190.02900	58
190.06176	41
191.03921	401
191.10625	34
192.04141	107
193.04942	139
195.02824	68
197.06085	53
201.09064	115
203.03479	66
203.07241	331
204.07730	118
205.04930	280
205.09317	235
206.04749	66
206.09301	48
207.05727	162
209.04259	101
211.07561	31
215.06997	128
216.04206	34
217.04936	98
219.03335	64
219.10776	73
220.03412	52
221.04370	33
228.04163	41
229.08745	510
230.08781	81
231.07418	999
232.07110	215
233.04201	143
233.08066	949
234.04803	31
234.08387	185
247.09559	319
248.10089	60
249.07520	66
249.11318	52
250.08337	409
250.09557	42
251.09563	910
252.09934	135
257.09080	463
258.08439	73
275.09098	787
276.09402	143
293.10141	422
294.10510	71
