Mass spectrum: Daldinin C; ESI-Q-TOF; MS2; CE:40.656; [M+H]+
Name: Daldinin C
Formula: Unknown
Exact mass: Unknown
Instrument: ESI-Q-TOF
Instrument type: ESI-Q-TOF
Ms type: MS2
Ion mode: POSITIVE
Collision energy: 40.656
Precursor m/z: 435.16495886660994
m/z	relative intensity
55.05503	89
83.04932	259
109.06361	35
125.05984	37
153.01724	37
159.07955	55
173.09537	33
177.09170	32
187.07530	133
189.05539	65
191.03424	159
193.04916	150
194.05333	32
201.09093	83
203.07106	102
205.05079	74
205.08833	72
207.06486	55
209.04462	50
215.06970	51
219.03023	96
219.10165	64
229.08689	286
230.09015	58
231.06558	331
232.07140	65
233.04459	40
233.08408	508
234.08526	52
247.09733	309
248.09837	33
249.07658	34
250.08537	96
251.09268	451
252.09330	85
257.08129	191
258.08360	46
275.09363	999
276.09599	171
293.10186	763
294.10593	143
311.11035	43
