Mass spectrum: Lenormandin G; ESI-Q-TOF; MS2; CE:46.2; [M+H]+
Name: Lenormandin G
Formula: Unknown
Exact mass: Unknown
Instrument: ESI-Q-TOF
Instrument type: ESI-Q-TOF
Ms type: MS2
Ion mode: POSITIVE
Collision energy: 46.2
Precursor m/z: 535.30300983772
m/z	relative intensity
161.05922	90
189.05432	200
205.08786	52
211.03625	52
229.04602	196
233.08273	210
234.08408	59
255.06159	163
256.07177	115
273.07299	313
274.07785	73
535.30312	999
536.30194	264
536.31572	104
537.30669	76
