Mass spectrum: Daldinin C; ESI-Q-TOF; MS2; CE:40.656; [M+H]+
Name: Daldinin C
Formula: Unknown
Exact mass: Unknown
Instrument: ESI-Q-TOF
Instrument type: ESI-Q-TOF
Ms type: MS2
Ion mode: POSITIVE
Collision energy: 40.656
Precursor m/z: 435.16495886660994
m/z	relative intensity
55.05544	375
83.05145	999
84.05141	61
107.04893	31
125.05872	58
147.04503	51
151.04068	72
159.08059	80
161.05848	38
163.03887	156
163.07444	47
165.05524	63
173.02624	30
173.06151	33
175.03917	104
177.01821	33
177.05463	42
177.09102	87
179.03335	123
187.07513	153
189.05445	127
191.03241	535
192.03947	53
193.04705	655
194.05263	35
201.09273	121
203.06935	110
203.10460	31
205.05097	113
205.08609	156
206.05502	77
207.02989	67
207.06471	46
209.04371	89
211.07381	52
215.07246	145
217.05475	59
219.03268	63
219.10115	111
221.04571	49
229.08579	389
230.09010	75
231.06515	395
231.09388	60
232.07158	148
233.04636	179
233.08089	831
233.09321	43
234.08721	182
237.03940	37
239.06993	63
247.09616	351
248.09978	76
249.07609	47
250.08297	240
251.09974	544
252.09603	112
257.08186	344
258.08402	79
275.09161	987
276.09650	291
293.10111	724
294.10975	110
393.15195	35
