Mass spectrum: Macrocarpon A; ESI-Q-TOF; MS2; CE:35.112; [M+H]+
Name: Macrocarpon A
Formula: Unknown
Exact mass: Unknown
Instrument: ESI-Q-TOF
Instrument type: ESI-Q-TOF
Ms type: MS2
Ion mode: POSITIVE
Collision energy: 35.112
Precursor m/z: 291.08631462105
m/z	relative intensity
175.07696	331
176.07876	49
203.07022	999
204.07602	122
217.08613	65
221.08161	49
245.08080	48
259.09582	45
272.06862	32
287.09083	212
288.09495	44
305.10226	30
