Mass spectrum: Rubiginosin B; ESI-Q-TOF; MS2; CE:40.656; [M+H]+
Name: Rubiginosin B
Formula: Unknown
Exact mass: Unknown
Instrument: ESI-Q-TOF
Instrument type: ESI-Q-TOF
Ms type: MS2
Ion mode: POSITIVE
Collision energy: 40.656
Precursor m/z: 425.12068836786
m/z	relative intensity
173.02165	241
257.07945	80
275.08972	999
276.09389	187
