Mass spectrum: Minutellin A; ESI-Q-TOF; MS2; CE:46.2; [M+H]+
Name: Minutellin A
Formula: C27H30O7
Exact mass: 466.1992
SMILES: C1(C2(C(C=3C(=C1)C=C(OC3)C=4C(=O)CC(CC4C)O)=C(C(O2)=O)C(=O)CCCCCCC)C)=O
InChI: InChI=1S/C27H30O7/c1-4-5-6-7-8-9-19(29)24-25-18-14-33-21(23-15(2)10-17(28)13-20(23)30)11-16(18)12-22(31)27(25,3)34-26(24)32/h11-12,14,17,28H,4-10,13H2,1-3H3/t17?,27-/m0/s1
Instrument: ESI-Q-TOF
Instrument type: ESI-Q-TOF
Ms type: MS2
Ion mode: POSITIVE
Collision energy: 46.2
Precursor m/z: 489.1883740061
m/z	relative intensity
361.07286	61
362.07541	999
363.08096	376
364.08196	61
