Mass spectrum: Daldinin C; ESI-Q-TOF; MS2; CE:40.656; [M+H]+
Name: Daldinin C
Formula: Unknown
Exact mass: Unknown
Instrument: ESI-Q-TOF
Instrument type: ESI-Q-TOF
Ms type: MS2
Ion mode: POSITIVE
Collision energy: 40.656
Precursor m/z: 417.15439418254994
m/z	relative intensity
55.05641	513
83.04915	999
159.08340	39
177.05476	33
191.03460	78
191.07027	39
191.10807	54
201.09461	120
205.04916	48
215.07178	34
219.10121	33
221.04892	48
229.08502	216
232.07331	161
233.04832	36
233.08507	291
235.05755	31
247.09806	262
251.09000	93
257.07989	481
258.08306	54
275.09071	444
276.09009	74
293.10122	220
335.11712	34
