Mass spectrum: Lenormandin F; ESI-Q-TOF; MS2; CE:46.2; [M+H]+
Name: Lenormandin F
Formula: Unknown
Exact mass: Unknown
Instrument: ESI-Q-TOF
Instrument type: ESI-Q-TOF
Ms type: MS2
Ion mode: POSITIVE
Collision energy: 46.2
Precursor m/z: 511.30300983771997
m/z	relative intensity
162.06402	100
189.05447	104
190.06001	59
211.03686	137
229.04607	72
230.04849	109
233.08066	157
255.06653	117
256.07023	215
258.05049	114
272.06513	96
273.07372	480
274.07805	107
511.30347	999
512.30724	344
513.31127	65
513.34651	81
525.38002	59
