Mass spectrum: Daldinin C; ESI-Q-TOF; MS2; CE:40.656; [M+H]+
Name: Daldinin C
Formula: Unknown
Exact mass: Unknown
Instrument: ESI-Q-TOF
Instrument type: ESI-Q-TOF
Ms type: MS2
Ion mode: POSITIVE
Collision energy: 40.656
Precursor m/z: 417.15198849677995
m/z	relative intensity
55.05446	548
83.04967	999
191.03189	92
215.07294	118
219.10214	98
229.08732	395
230.08921	148
231.06726	89
232.07538	198
233.08126	156
247.09669	71
257.08038	357
275.09134	518
293.10318	353
294.10743	130
