Mass spectrum: Macrocarpon A; ESI-Q-TOF; MS2; CE:40.656; [M+H]+
Name: Macrocarpon A
Formula: Unknown
Exact mass: Unknown
Instrument: ESI-Q-TOF
Instrument type: ESI-Q-TOF
Ms type: MS2
Ion mode: POSITIVE
Collision energy: 40.656
Precursor m/z: 291.08631462105
m/z	relative intensity
132.05741	33
160.05062	100
173.06016	33
175.07560	947
176.07909	98
191.07045	40
203.07032	999
204.07356	117
217.08599	46
221.07675	35
244.07292	33
272.07334	49
287.08876	47
